Circuit: *** SPICE deck for cell AND{lay} from library NAND2

Direct Newton iteration for .op point succeeded.

Date: Sun Sep 03 19:09:52 2023
Total elapsed time: 0.225 seconds.

tnom = 27
temp = 27
method = modified trap
totiter = 2350
traniter = 2343
tranpoints = 1123
accept = 1106
rejected = 17
matrix size = 33
fillins = 0
solver = Normal
Matrix Compiler1: 3.46 KB object code size  0.7/0.5/[0.2]
Matrix Compiler2: off  [0.4]/0.6/0.4

