Circuit: *** SPICE deck for cell Characteristic_Test{sch} from library Assignment4

Direct Newton iteration failed to find .op point.  (Use ".option noopiter" to skip.)
Starting Gmin stepping
Gmin = 10
Gmin = 1.07374
Gmin = 0.115292
Gmin = 0.0123794
Gmin = 0.00132923
Gmin = 0.000142725
Gmin = 1.5325e-005
Gmin = 1.6455e-006
Gmin = 1.76685e-007
Gmin = 1.89714e-008
Gmin = 2.03704e-009
Gmin = 2.18725e-010
Gmin = 2.34854e-011
Gmin = 2.52173e-012
Gmin = 2.70769e-013
Gmin = 0
Gmin stepping succeeded in finding the operating point.


s00r=1.60455e-011 FROM 3.80758e-010 TO 3.96804e-010
s00f=3.35164e-011 FROM 7.82368e-010 TO 8.15884e-010
s01r=2.19362e-011 FROM 2.38073e-009 TO 2.40266e-009
s01f=4.07818e-011 FROM 2.78255e-009 TO 2.82333e-009
s10r=4.92581e-011 FROM 1.38081e-009 TO 1.43007e-009
s10f=2.69757e-011 FROM 1.78197e-009 TO 1.80894e-009
s11r=4.00991e-011 FROM 3.38038e-009 TO 3.42047e-009
s11f=1.69818e-011 FROM 3.78169e-009 TO 3.79867e-009
c01r=1.52061e-011 FROM 2.38073e-009 TO 2.39593e-009
c01f=3.06068e-011 FROM 2.78255e-009 TO 2.81316e-009
c10r=4.0817e-011 FROM 1.38081e-009 TO 1.42163e-009
c10f=1.75411e-011 FROM 1.78197e-009 TO 1.79951e-009


Date: Wed Nov 01 16:42:37 2023
Total elapsed time: 1.457 seconds.

tnom = 27
temp = 27
method = modified trap
totiter = 3274
traniter = 2833
tranpoints = 1202
accept = 1162
rejected = 40
matrix size = 306
fillins = 16
solver = Normal
Thread vector: 361.2/116.0[7] 52.0/14.7[7] 23.5/6.1[7] 7.6/7.2[2]  2592/500
Matrix Compiler1: 52.31 KB object code size  44.5/23.9/[10.8]
Matrix Compiler2: 39.00 KB object code size  26.1/25.0/[8.5]

