Circuit: *** SPICE deck for cell critical_path{sch} from library Assignment4

Direct Newton iteration failed to find .op point.  (Use ".option noopiter" to skip.)
Starting Gmin stepping
Gmin = 10
Gmin = 1.07374
Gmin = 0.115292
Gmin = 0.0123794
Gmin = 0.00132923
Gmin = 0.000142725
Gmin = 1.5325e-005
Gmin = 1.6455e-006
Gmin = 1.76685e-007
Gmin = 1.89714e-008
Gmin = 2.03704e-009
Gmin = 2.18725e-010
Gmin = 2.34854e-011
Gmin = 2.52173e-012
Gmin = 2.70769e-013
Gmin = 0
Gmin stepping succeeded in finding the operating point.


cr=4.06052e-010 FROM 9.5e-010 TO 1.35605e-009
cf=3.87251e-010 FROM 1.95e-009 TO 2.33725e-009


Date: Wed Dec 06 21:24:57 2023
Total elapsed time: 15.535 seconds.

tnom = 27
temp = 27
method = modified trap
totiter = 3324
traniter = 2785
tranpoints = 1103
accept = 1091
rejected = 12
matrix size = 3569
fillins = 120
solver = Normal
Thread vector: 1349.4/482.0[16] 483.0/108.7[16] 206.8/79.8[16] 31.1/64.6[1]  2592/500
Matrix Compiler1: 547.86 KB object code size  572.0/228.5/[129.8]
Matrix Compiler2: 467.73 KB object code size  312.0/209.6/[86.4]

