Circuit: *** SPICE deck for cell CSM{lay} from library FINAL_PROJECT

Fatal Error: No analysis request found.
