Circuit: *** SPICE deck for cell test1{sch} from library InputOrdering-test

Direct Newton iteration failed to find .op point.  (Use ".option noopiter" to skip.)
Starting Gmin stepping
Gmin = 10
Gmin = 1.07374
Gmin = 0.115292
Gmin = 0.0123794
Gmin = 0.00132923
Gmin = 0.000142725
Gmin = 1.5325e-005
Gmin = 1.6455e-006
Gmin = 1.76685e-007
Gmin = 1.89714e-008
Gmin = 2.03704e-009
Gmin = 2.18725e-010
Gmin = 2.34854e-011
Gmin = 2.52173e-012
Gmin = 2.70769e-013
Gmin = 0
Gmin stepping succeeded in finding the operating point.


s00r=1.10221e-011 FROM 3.72051e-010 TO 3.83073e-010
s00f=2.17293e-011 FROM 7.71495e-010 TO 7.93224e-010
s01r=1.77576e-011 FROM 2.37201e-009 TO 2.38976e-009
s01f=1.71283e-011 FROM 2.77171e-009 TO 2.78884e-009
s10r=1.68144e-011 FROM 1.37203e-009 TO 1.38884e-009
s10f=1.65166e-011 FROM 1.77165e-009 TO 1.78817e-009
s11r=3.41609e-011 FROM 3.37149e-009 TO 3.40566e-009
s11f=1.19517e-011 FROM 3.77092e-009 TO 3.78288e-009
c01r=1.1256e-011 FROM 2.37201e-009 TO 2.38326e-009
c01f=9.61395e-012 FROM 2.77171e-009 TO 2.78133e-009
c10r=1.03491e-011 FROM 1.37203e-009 TO 1.38238e-009
c10f=9.99784e-012 FROM 1.77165e-009 TO 1.78165e-009


Date: Sun Oct 29 17:33:43 2023
Total elapsed time: 0.510 seconds.

tnom = 27
temp = 27
method = modified trap
totiter = 3224
traniter = 2784
tranpoints = 1202
accept = 1162
rejected = 40
matrix size = 306
fillins = 16
solver = Normal
Thread vector: 105.2/30.2[7] 26.0/6.5[7] 10.7/7.2[7] 2.4/4.3[1]  2592/500
Matrix Compiler1: 52.29 KB object code size  18.9/8.8/[4.1]
Matrix Compiler2: 39.01 KB object code size  8.0/7.0/[2.9]

